26
 g-Tensor orientation as XYZ file; He=chosen origin Ne=g1 Ar=g2 Kr=g3
C        1.447454105     -0.000000080      0.000000030
C        2.133104036      1.206016716     -0.000000156
C        2.133104186     -1.206016768      0.000000164
C        3.546851843      1.235387285     -0.000000339
C        3.546851873     -1.235387187      0.000000070
C        4.279033266      2.445144925     -0.000000019
C        4.260004452      0.000000074     -0.000000043
C        4.279033156     -2.445144882      0.000000263
C        5.666297285      2.436029474      0.000000207
C        5.686483955      0.000000084     -0.000000202
C        5.666297158     -2.436029454     -0.000000076
C        6.367799062      1.239125865      0.000000120
C        6.367798943     -1.239125861     -0.000000052
H        0.364254491     -0.000000180     -0.000000136
H        1.588869492      2.142837744     -0.000000175
H        1.588869734     -2.142837826      0.000000235
H        3.739808721      3.384825060     -0.000000162
H        3.739808597     -3.384824971      0.000000337
H        6.207915370      3.374100897      0.000000353
H        6.207915125     -3.374100948     -0.000000193
H        7.451222619      1.242069084      0.000000452
H        7.451222522     -1.242069040     -0.000000679
He       0.000000000      0.000000000      0.000000000
Ne       0.000001913     -0.000001877      0.793765812
Ar      -0.007779380      0.793727690      0.000001895
Kr      -0.793727690     -0.007779380      0.000001894
